LTspice 24.1.2 for Windows
Circuit: D:\electro-robot\LTSpice\Porte_logique_non_Diode.net
Start Time: Fri Feb 21 12:10:23 2025
solver = Normal
Maximum thread count: 8
tnom = 27
temp = 27
method = trap
.OP point found by inspection.
Total elapsed time: 0.092 seconds.

Files loaded:
D:\electro-robot\LTSpice\Porte_logique_non_Diode.net
C:\Users\bkhro\AppData\Local\LTspice\lib\cmp\standard.dio

